.MODEL BSB012N03LX3 VDMOS(Rg=0.5 Vto=2.77 Rd=612u Rs=183u Rb=383u Kp=1084 Lambda=0.09 Cgdmin=155p Cgdmax=2.32n A=0.6 Cgs=9.61n Cjo=8.84n M=0.3 Is=84p VJ=0.9 N=1.1 TT=3n mfg=Infineon Vds=30 Ron=1.2m Qg=62n)